
**** 01/15/15 22:07:38 ***** PSpice 16.6.0 (October 2012) ***** ID# 0 ********

 ** Profile: "SCHEMATIC1-bias"  [ C:\Users\Clayton\Desktop\PSpice_BJTs\bms_v2-pspicefiles\schematic1\bias.sim ] 


 ****     CIRCUIT DESCRIPTION


******************************************************************************




** Creating circuit file "bias.cir" 
** WARNING: THIS AUTOMATICALLY GENERATED FILE MAY BE OVERWRITTEN BY SUBSEQUENT SIMULATIONS

*Libraries: 
* Profile Libraries :
* Local Libraries :
* From [PSPICE NETLIST] section of C:\SPB_Data\cdssetup\OrCAD_PSpice/16.6.0/PSpice.ini file:
.lib "nom.lib" 

*Analysis directives: 
.TRAN  0 2 0 .1 SKIPBP 
.OPTIONS ADVCONV
.PROBE64 V(alias(*)) I(alias(*)) W(alias(*)) D(alias(*)) NOISE(alias(*)) 
.INC "..\SCHEMATIC1.net" 



**** INCLUDING SCHEMATIC1.net ****
* source BMS_V2
V_V1         N22536 N14639 4Vdc
V_V2         N14639 N27496 4Vdc
V_V3         N27496 0 4Vdc
V_V7         HIGH 0 5Vdc
R_R9         N267101 N22536  470 TC=0,0 
R_R10         N26778 N14639  470 TC=0,0 
R_R11         N267421 N27496  470 TC=0,0 
R_R12         N48782 N22536  10k TC=0,0 
R_R13         N51480 N14639  10k TC=0,0 
R_R14         N51698 N27496  10k TC=0,0 
R_R15         N55702 N22536  1Meg TC=0,0 
R_R16         N58521 N14639  1Meg TC=0,0 
R_R17         N56952 N27496  1Meg TC=0,0 
R_R22         A2 N58521  1Meg TC=0,0 
X_U4         N55702 N58521 HIGH 0 A2 uA741
R_R23         0 N55702  1Meg TC=0,0 
R_R24         A1 N56952  1Meg TC=0,0 
X_U5         N64239 N56952 HIGH 0 A1 uA741
R_R25         N64239 N14639  1Meg TC=0,0 
R_R27         0 N27496  1Meg TC=0,0 
D_D1         N26778 N68976 D1N4376 
D_D2         N267101 N687111 D1N4376 
D_D3         N267421 N687271 D1N4376 
Q_Q1         N687111 N48782 N14639 Q2N2222
Q_Q2         N68976 N51480 N27496 Q2N2222
Q_Q3         N687271 N51698 0 Q2N2222
Q_Q4         N48782 0 0 Q2N2222
Q_Q5         N51480 HIGH 0 Q2N2222
Q_Q6         N51698 HIGH 0 Q2N2222
R_R32         N48782 HIGH  1Meg TC=0,0 
R_R33         N48782 HIGH  1Meg TC=0,0 
R_R34         N48782 0  50k TC=0,0 
R_R35         0 N64239  1Meg TC=0,0 

**** RESUMING bias.cir ****
.END

**** 01/15/15 22:07:38 ***** PSpice 16.6.0 (October 2012) ***** ID# 0 ********

 ** Profile: "SCHEMATIC1-bias"  [ C:\Users\Clayton\Desktop\PSpice_BJTs\bms_v2-pspicefiles\schematic1\bias.sim ] 


 ****     Diode MODEL PARAMETERS


******************************************************************************




               D1N4376         X_U4.dx         X_U4.dy         X_U5.dx         
          IS  857.890000E-12  800.000000E-18  800.000000E-18  800.000000E-18 
           N    1.88811                                                      
         ISR   40.817000E-09                                                 
          NR    6.32069                                                      
          BV   20.375                                                        
         IBV   10                                                            
          RS    2.53577         1               1.000000E-03    1            
          TT  662.000000E-12                                                 
         CJO    1.000000E-12                   10.000000E-12                 
          VJ     .75                                                         
           M     .3333                                                       


               X_U5.dy         
          IS  800.000000E-18 
          RS    1.000000E-03 
         CJO   10.000000E-12 


**** 01/15/15 22:07:38 ***** PSpice 16.6.0 (October 2012) ***** ID# 0 ********

 ** Profile: "SCHEMATIC1-bias"  [ C:\Users\Clayton\Desktop\PSpice_BJTs\bms_v2-pspicefiles\schematic1\bias.sim ] 


 ****     BJT MODEL PARAMETERS


******************************************************************************




               Q2N2222         X_U4.qx         X_U5.qx         
               NPN             NPN             NPN             
       LEVEL    1               1               1            
          IS   14.340000E-15  800.000000E-18  800.000000E-18 
          BF  255.9            93.75           93.75         
          NF    1               1               1            
         VAF   74.03                                         
         IKF     .2847                                       
         ISE   14.340000E-15                                 
          NE    1.307                                        
          BR    6.092           1               1            
          NR    1               1               1            
         ISS    0               0               0            
          RB   10                                            
          RE    0               0               0            
          RC    1               0               0            
         CJE   22.010000E-12    0               0            
         VJE     .75             .75             .75         
         MJE     .377                                        
         CJC    7.306000E-12    0               0            
         VJC     .75             .75             .75         
         MJC     .3416           .33             .33         
        XCJC    1               1               1            
         CJS    0               0               0            
         VJS     .75             .75             .75         
          TF  411.100000E-12                                 
         XTF    3                                            
         VTF    1.7                                          
         ITF     .6                                          
          TR   46.910000E-09                                 
         XTB    1.5                                          
          KF    0               0               0            
          AF    1               1               1            
          CN    2.42            2.42            2.42         
           D     .87             .87             .87         



          JOB CONCLUDED

**** 01/15/15 22:07:38 ***** PSpice 16.6.0 (October 2012) ***** ID# 0 ********

 ** Profile: "SCHEMATIC1-bias"  [ C:\Users\Clayton\Desktop\PSpice_BJTs\bms_v2-pspicefiles\schematic1\bias.sim ] 


 ****     JOB STATISTICS SUMMARY


******************************************************************************



  Total job time (using Solver 1)   =         .08
