
**** 01/08/15 23:33:49 ***** PSpice 16.6.0 (October 2012) ***** ID# 0 ********

 ** Profile: "SCHEMATIC1-bias"  [ C:\Users\Clayton\Documents\Seafile\UAF\ITEST\Git Repo\BMS\PSpice\bms_v2-pspicefiles\schematic1\bias


 ****     CIRCUIT DESCRIPTION


******************************************************************************




** Creating circuit file "bias.cir" 
** WARNING: THIS AUTOMATICALLY GENERATED FILE MAY BE OVERWRITTEN BY SUBSEQUENT SIMULATIONS

*Libraries: 
* Profile Libraries :
* Local Libraries :
.LIB "C:/Users/Clayton/Desktop/CAuld.lib" 
* From [PSPICE NETLIST] section of C:\SPB_Data\cdssetup\OrCAD_PSpice/16.6.0/PSpice.ini file:
.lib "nom.lib" 

*Analysis directives: 
.TRAN  0 2 0 .1 SKIPBP 
.OPTIONS ADVCONV
.PROBE64 V(alias(*)) I(alias(*)) W(alias(*)) D(alias(*)) NOISE(alias(*)) 
.INC "..\SCHEMATIC1.net" 



**** INCLUDING SCHEMATIC1.net ****
* source BMS_V2
V_V1         N22536 N14639 4Vdc
V_V2         N14639 N26792 4Vdc
V_V3         N26792 0 4Vdc
V_V7         HIGH 0 5Vdc
R_R9         N267101 N22536  10 TC=0,0 
R_R10         N26778 N14639  10 TC=0,0 
R_R11         N267421 N26792  10 TC=0,0 
X_M25         N267421 N51698 0 NDS335N/FAI
X_M26         N26778 N51480 N26792 NDS335N/FAI
X_M27         N267101 N48782 N14639 NDS335N/FAI
R_R12         N48782 N22536  1Meg TC=0,0 
R_R13         N51480 N14639  1Meg TC=0,0 
R_R14         N51698 N26792  1Meg TC=0,0 
X_M28         N48782 HIGH 0 NDS335N/FAI
X_M29         N51480 HIGH 0 NDS335N/FAI
X_M30         N51698 HIGH 0 NDS335N/FAI
R_R15         N55702 N22536  100Meg TC=0,0 
R_R16         N58521 N14639  100Meg TC=0,0 
R_R17         N56952 N26792  100Meg TC=0,0 
R_R22         A2 N58521  100Meg TC=0,0 
X_U4         N55702 N58521 HIGH 0 A2 uA741
R_R23         0 N55702  100Meg TC=0,0 
R_R24         A1 N56952  100Meg TC=0,0 
X_U5         N64239 N56952 HIGH 0 A1 uA741
R_R25         N64239 N14639  100Meg TC=0,0 
R_R26         0 N64239  100Meg TC=0,0 
R_R27         0 N26792  100Meg TC=0,0 

**** RESUMING bias.cir ****
.END

**** 01/08/15 23:33:49 ***** PSpice 16.6.0 (October 2012) ***** ID# 0 ********

 ** Profile: "SCHEMATIC1-bias"  [ C:\Users\Clayton\Documents\Seafile\UAF\ITEST\Git Repo\BMS\PSpice\bms_v2-pspicefiles\schematic1\bias


 ****     Diode MODEL PARAMETERS


******************************************************************************




               X_M25.DDS       X_M25.DBODY     X_M25.DGD       X_M26.DDS       
          IS   10.000000E-15  140.000000E-15   10.000000E-15   10.000000E-15 
          BV   20.0336                                         20.0336       
          RS                     .04                                         
          TT                  100.000000E-09                                 
         CJO  250.000000E-12                  450.000000E-12  250.000000E-12 
          VJ     .8                              .15             .8          
           M     .3                                              .3          


               X_M26.DBODY     X_M26.DGD       X_M27.DDS       X_M27.DBODY     
          IS  140.000000E-15   10.000000E-15   10.000000E-15  140.000000E-15 
          BV                                   20.0336                       
          RS     .04                                             .04         
          TT  100.000000E-09                                  100.000000E-09 
         CJO                  450.000000E-12  250.000000E-12                 
          VJ                     .15             .8                          
           M                                     .3                          


               X_M27.DGD       X_M28.DDS       X_M28.DBODY     X_M28.DGD       
          IS   10.000000E-15   10.000000E-15  140.000000E-15   10.000000E-15 
          BV                   20.0336                                       
          RS                                     .04                         
          TT                                  100.000000E-09                 
         CJO  450.000000E-12  250.000000E-12                  450.000000E-12 
          VJ     .15             .8                              .15         
           M                     .3                                          


               X_M29.DDS       X_M29.DBODY     X_M29.DGD       X_M30.DDS       
          IS   10.000000E-15  140.000000E-15   10.000000E-15   10.000000E-15 
          BV   20.0336                                         20.0336       
          RS                     .04                                         
          TT                  100.000000E-09                                 
         CJO  250.000000E-12                  450.000000E-12  250.000000E-12 
          VJ     .8                              .15             .8          
           M     .3                                              .3          


               X_M30.DBODY     X_M30.DGD       X_U4.dx         X_U4.dy         
          IS  140.000000E-15   10.000000E-15  800.000000E-18  800.000000E-18 
          RS     .04                            1               1.000000E-03 
          TT  100.000000E-09                                                 
         CJO                  450.000000E-12                   10.000000E-12 
          VJ                     .15                                         


               X_U5.dx         X_U5.dy         
          IS  800.000000E-18  800.000000E-18 
          RS    1               1.000000E-03 
         CJO                   10.000000E-12 


**** 01/08/15 23:33:49 ***** PSpice 16.6.0 (October 2012) ***** ID# 0 ********

 ** Profile: "SCHEMATIC1-bias"  [ C:\Users\Clayton\Documents\Seafile\UAF\ITEST\Git Repo\BMS\PSpice\bms_v2-pspicefiles\schematic1\bias


 ****     BJT MODEL PARAMETERS


******************************************************************************




               X_U4.qx         X_U5.qx         
               NPN             NPN             
       LEVEL    1               1            
          IS  800.000000E-18  800.000000E-18 
          BF   93.75           93.75         
          NF    1               1            
          BR    1               1            
          NR    1               1            
         ISS    0               0            
          RE    0               0            
          RC    0               0            
         CJE    0               0            
         VJE     .75             .75         
         CJC    0               0            
         VJC     .75             .75         
         MJC     .33             .33         
        XCJC    1               1            
         CJS    0               0            
         VJS     .75             .75         
          KF    0               0            
          AF    1               1            
          CN    2.42            2.42         
           D     .87             .87         


**** 01/08/15 23:33:49 ***** PSpice 16.6.0 (October 2012) ***** ID# 0 ********

 ** Profile: "SCHEMATIC1-bias"  [ C:\Users\Clayton\Documents\Seafile\UAF\ITEST\Git Repo\BMS\PSpice\bms_v2-pspicefiles\schematic1\bias


 ****     MOSFET MODEL PARAMETERS


******************************************************************************




               X_M25.DMOS      X_M25.INTER     X_M26.DMOS      X_M26.INTER     
               NMOS            NMOS            NMOS            NMOS            
       LEVEL    3               1               3               1            
           L  100.000000E-06  100.000000E-06  100.000000E-06  100.000000E-06 
           W  100.000000E-06  100.000000E-06  100.000000E-06  100.000000E-06 
         VTO     .64584         0                .64584         0            
          KP    8.164          10               8.164          10            
       GAMMA    0               0               0               0            
         PHI     .6              .6              .6              .6          
      LAMBDA    0               0               0               0            
          IS   10.000000E-15   10.000000E-15   10.000000E-15   10.000000E-15 
          JS    0               0               0               0            
          PB     .8              .8              .8              .8          
        PBSW     .8              .8              .8              .8          
          CJ    0               0               0               0            
        CJSW    0               0               0               0            
        CGSO    0               0               0               0            
        CGDO    0               0               0               0            
        CGBO    0               0               0               0            
         TOX  100.000000E-09    0             100.000000E-09    0            
          XJ    0               0               0               0            
       UCRIT   10.000000E+03   10.000000E+03   10.000000E+03   10.000000E+03 
        VMAX  400.000000E+03                  400.000000E+03                 
       THETA     .096                            .096                        
      DIOMOD    1               1               1               1            
         VFB    0               0               0               0            
        LETA    0               0               0               0            
        WETA    0               0               0               0            
          U0    0               0               0               0            
        TEMP    0               0               0               0            
         VDD    5               5               5               5            
       XPART    0               0               0               0            


               X_M27.DMOS      X_M27.INTER     X_M28.DMOS      X_M28.INTER     
               NMOS            NMOS            NMOS            NMOS            
       LEVEL    3               1               3               1            
           L  100.000000E-06  100.000000E-06  100.000000E-06  100.000000E-06 
           W  100.000000E-06  100.000000E-06  100.000000E-06  100.000000E-06 
         VTO     .64584         0                .64584         0            
          KP    8.164          10               8.164          10            
       GAMMA    0               0               0               0            
         PHI     .6              .6              .6              .6          
      LAMBDA    0               0               0               0            
          IS   10.000000E-15   10.000000E-15   10.000000E-15   10.000000E-15 
          JS    0               0               0               0            
          PB     .8              .8              .8              .8          
        PBSW     .8              .8              .8              .8          
          CJ    0               0               0               0            
        CJSW    0               0               0               0            
        CGSO    0               0               0               0            
        CGDO    0               0               0               0            
        CGBO    0               0               0               0            
         TOX  100.000000E-09    0             100.000000E-09    0            
          XJ    0               0               0               0            
       UCRIT   10.000000E+03   10.000000E+03   10.000000E+03   10.000000E+03 
        VMAX  400.000000E+03                  400.000000E+03                 
       THETA     .096                            .096                        
      DIOMOD    1               1               1               1            
         VFB    0               0               0               0            
        LETA    0               0               0               0            
        WETA    0               0               0               0            
          U0    0               0               0               0            
        TEMP    0               0               0               0            
         VDD    5               5               5               5            
       XPART    0               0               0               0            


               X_M29.DMOS      X_M29.INTER     X_M30.DMOS      X_M30.INTER     
               NMOS            NMOS            NMOS            NMOS            
       LEVEL    3               1               3               1            
           L  100.000000E-06  100.000000E-06  100.000000E-06  100.000000E-06 
           W  100.000000E-06  100.000000E-06  100.000000E-06  100.000000E-06 
         VTO     .64584         0                .64584         0            
          KP    8.164          10               8.164          10            
       GAMMA    0               0               0               0            
         PHI     .6              .6              .6              .6          
      LAMBDA    0               0               0               0            
          IS   10.000000E-15   10.000000E-15   10.000000E-15   10.000000E-15 
          JS    0               0               0               0            
          PB     .8              .8              .8              .8          
        PBSW     .8              .8              .8              .8          
          CJ    0               0               0               0            
        CJSW    0               0               0               0            
        CGSO    0               0               0               0            
        CGDO    0               0               0               0            
        CGBO    0               0               0               0            
         TOX  100.000000E-09    0             100.000000E-09    0            
          XJ    0               0               0               0            
       UCRIT   10.000000E+03   10.000000E+03   10.000000E+03   10.000000E+03 
        VMAX  400.000000E+03                  400.000000E+03                 
       THETA     .096                            .096                        
      DIOMOD    1               1               1               1            
         VFB    0               0               0               0            
        LETA    0               0               0               0            
        WETA    0               0               0               0            
          U0    0               0               0               0            
        TEMP    0               0               0               0            
         VDD    5               5               5               5            
       XPART    0               0               0               0            



          JOB CONCLUDED

**** 01/08/15 23:33:49 ***** PSpice 16.6.0 (October 2012) ***** ID# 0 ********

 ** Profile: "SCHEMATIC1-bias"  [ C:\Users\Clayton\Documents\Seafile\UAF\ITEST\Git Repo\BMS\PSpice\bms_v2-pspicefiles\schematic1\bias


 ****     JOB STATISTICS SUMMARY


******************************************************************************



  Total job time (using Solver 1)   =         .08
