
**** 01/13/15 19:38:15 ***** PSpice 16.6.0 (October 2012) ***** ID# 0 ********

 ** Profile: "SCHEMATIC1-bias"  [ C:\Users\Clayton\Documents\Seafile\UAF\ITEST\Git Repo\BMS\PSpice\bms_v2-pspicefiles\schematic1\bias


 ****     CIRCUIT DESCRIPTION


******************************************************************************




** Creating circuit file "bias.cir" 
** WARNING: THIS AUTOMATICALLY GENERATED FILE MAY BE OVERWRITTEN BY SUBSEQUENT SIMULATIONS

*Libraries: 
* Profile Libraries :
* Local Libraries :
.LIB "C:/Users/Clayton/Desktop/CAuld.lib" 
* From [PSPICE NETLIST] section of C:\SPB_Data\cdssetup\OrCAD_PSpice/16.6.0/PSpice.ini file:
------------------------------------------$
ERROR(ORPSIM-16276): Can't find library
.lib "nom.lib" 

*Analysis directives: 
.TRAN  0 2 0 .1 SKIPBP 
.OPTIONS ADVCONV
.PROBE64 V(alias(*)) I(alias(*)) W(alias(*)) D(alias(*)) NOISE(alias(*)) 
.INC "..\SCHEMATIC1.net" 



**** INCLUDING SCHEMATIC1.net ****
* source BMS_V2
V_V1         N22536 N14639 4Vdc
V_V2         N14639 N27496 4Vdc
V_V3         N27496 0 4Vdc
V_V7         HIGH 0 5Vdc
R_R9         N267101 N22536  10 TC=0,0 
R_R10         N26778 N14639  10 TC=0,0 
R_R11         N267421 N27496  10 TC=0,0 
X_M25         N331562 N51698 0 NDS335N/FAI
X_M26         N27496 N51480 N27496 NDS335N/FAI
X_M27         N351702 N48782 N14639 NDS335N/FAI
R_R12         N48782 N22536  1Meg TC=0,0 
R_R13         N51480 N14639  1Meg TC=0,0 
R_R14         N51698 N27496  1Meg TC=0,0 
X_M28         N48782 HIGH 0 NDS335N/FAI
X_M29         N51480 HIGH 0 NDS335N/FAI
X_M30         N51698 0 0 NDS335N/FAI
R_R15         N55702 N22536  100Meg TC=0,0 
R_R16         N58521 N14639  100Meg TC=0,0 
R_R17         N56952 N27496  100Meg TC=0,0 
R_R22         A2 N58521  100Meg TC=0,0 
X_U4         N55702 N58521 HIGH 0 A2 uA741
R_R23         0 N55702  100Meg TC=0,0 
R_R24         A1 N56952  100Meg TC=0,0 
X_U5         N64239 N56952 HIGH 0 A1 uA741
R_R25         N64239 N14639  100Meg TC=0,0 
R_R26         0 N64239  100Meg TC=0,0 
R_R27         0 N27496  100Meg TC=0,0 
D_D1         N26778 N27496 D1N4376 
D_D2         N267101 N351702 D1N4376 
D_D3         N267421 N331562 D1N4376 

**** RESUMING bias.cir ****
.END
