
**** 01/05/15 13:29:16 ***** PSpice 16.6.0 (October 2012) ***** ID# 0 ********

 ** Profile: "SCHEMATIC1-bias"  [ C:\Users\Clayton\Documents\Seafile\UAF\ITEST\PSpice\bms_v2-pspicefiles\schematic1\bias.sim ] 


 ****     CIRCUIT DESCRIPTION


******************************************************************************




** Creating circuit file "bias.cir" 
** WARNING: THIS AUTOMATICALLY GENERATED FILE MAY BE OVERWRITTEN BY SUBSEQUENT SIMULATIONS

*Libraries: 
* Profile Libraries :
* Local Libraries :
* From [PSPICE NETLIST] section of C:\SPB_Data\cdssetup\OrCAD_PSpice/16.6.0/PSpice.ini file:
.lib "nom.lib" 

*Analysis directives: 
.TRAN  0 2 0 .1 SKIPBP 
.OPTIONS ADVCONV
.PROBE64 V(alias(*)) I(alias(*)) W(alias(*)) D(alias(*)) NOISE(alias(*)) 
.INC "..\SCHEMATIC1.net" 



**** INCLUDING SCHEMATIC1.net ****
* source BMS_V2
V_V1         N22536 N14639 4Vdc
V_V2         N14639 N15137 4Vdc
V_V3         N15137 GND 4Vdc
V_V7         VCC GND 5Vdc
R_R9         N267101 N22536  10 TC=0,0 
R_R10         N26778 N14639  10 TC=0,0 
R_R11         N267421 N15137  10 TC=0,0 
X_M25         N267421 GND GND NDS335N/FAI
X_M26         N26778 GND N15137 NDS335N/FAI
X_M27         N267101 N37675 N14639 NDS335N/FAI
X_M28         N38645 GND N37675 NDS335N/FAI
R_R12         N38645 N22536  1Meg TC=0,0 
X_M29         N37675 GND GND NDS335N/FAI

**** RESUMING bias.cir ****
.END

ERROR(ORPSIM-15142): Node N22536 is floating

ERROR(ORPSIM-15142): Node N14639 is floating

ERROR(ORPSIM-15142): Node N15137 is floating

ERROR(ORPSIM-15142): Node GND is floating

ERROR(ORPSIM-15142): Node VCC is floating

ERROR(ORPSIM-15142): Node N267101 is floating

ERROR(ORPSIM-15142): Node N26778 is floating

ERROR(ORPSIM-15142): Node N267421 is floating

ERROR(ORPSIM-15142): Node N38645 is floating

ERROR(ORPSIM-15142): Node X_M25.1 is floating

ERROR(ORPSIM-15142): Node X_M25.2 is floating

ERROR(ORPSIM-15142): Node X_M25.3 is floating

ERROR(ORPSIM-15142): Node X_M25.4 is floating

ERROR(ORPSIM-15142): Node X_M25.5 is floating

ERROR(ORPSIM-15142): Node X_M25.8 is floating

ERROR(ORPSIM-15142): Node X_M25.6 is floating

ERROR(ORPSIM-15142): Node X_M25.7 is floating

ERROR(ORPSIM-15142): Node X_M25.9 is floating

ERROR(ORPSIM-15142): Node X_M26.1 is floating

ERROR(ORPSIM-15142): Node X_M26.2 is floating

ERROR(ORPSIM-15142): Node X_M26.3 is floating

ERROR(ORPSIM-15142): Node X_M26.4 is floating

ERROR(ORPSIM-15142): Node X_M26.5 is floating

ERROR(ORPSIM-15142): Node X_M26.8 is floating

ERROR(ORPSIM-15142): Node X_M26.6 is floating

ERROR(ORPSIM-15142): Node X_M26.7 is floating

ERROR(ORPSIM-15142): Node X_M26.9 is floating

ERROR(ORPSIM-15142): Node N37675 is floating

ERROR(ORPSIM-15142): Node X_M27.1 is floating

ERROR(ORPSIM-15142): Node X_M27.2 is floating

ERROR(ORPSIM-15142): Node X_M27.3 is floating

ERROR(ORPSIM-15142): Node X_M27.4 is floating

ERROR(ORPSIM-15142): Node X_M27.5 is floating

ERROR(ORPSIM-15142): Node X_M27.8 is floating

ERROR(ORPSIM-15142): Node X_M27.6 is floating

ERROR(ORPSIM-15142): Node X_M27.7 is floating

ERROR(ORPSIM-15142): Node X_M27.9 is floating

ERROR(ORPSIM-15142): Node X_M28.1 is floating

ERROR(ORPSIM-15142): Node X_M28.2 is floating

ERROR(ORPSIM-15142): Node X_M28.3 is floating

ERROR(ORPSIM-15142): Node X_M28.4 is floating

ERROR(ORPSIM-15142): Node X_M28.5 is floating

ERROR(ORPSIM-15142): Node X_M28.8 is floating

ERROR(ORPSIM-15142): Node X_M28.6 is floating

ERROR(ORPSIM-15142): Node X_M28.7 is floating

ERROR(ORPSIM-15142): Node X_M28.9 is floating

ERROR(ORPSIM-15142): Node X_M29.1 is floating

ERROR(ORPSIM-15142): Node X_M29.2 is floating

ERROR(ORPSIM-15142): Node X_M29.3 is floating

ERROR(ORPSIM-15142): Node X_M29.4 is floating

ERROR(ORPSIM-15142): Node X_M29.5 is floating

ERROR(ORPSIM-15142): Node X_M29.8 is floating

ERROR(ORPSIM-15142): Node X_M29.6 is floating

ERROR(ORPSIM-15142): Node X_M29.7 is floating

ERROR(ORPSIM-15142): Node X_M29.9 is floating
