
**** 01/08/15 23:02:06 ***** PSpice 16.6.0 (October 2012) ***** ID# 0 ********

 ** Profile: "SCHEMATIC1-bias"  [ C:\Users\Clayton\Documents\Seafile\UAF\ITEST\Git Repo\BMS\PSpice\bms_v2-pspicefiles\schematic1\bias


 ****     CIRCUIT DESCRIPTION


******************************************************************************




** Creating circuit file "bias.cir" 
** WARNING: THIS AUTOMATICALLY GENERATED FILE MAY BE OVERWRITTEN BY SUBSEQUENT SIMULATIONS

*Libraries: 
* Profile Libraries :
* Local Libraries :
.LIB "C:/Users/Clayton/Desktop/CAuld.lib" 
* From [PSPICE NETLIST] section of C:\SPB_Data\cdssetup\OrCAD_PSpice/16.6.0/PSpice.ini file:
.lib "nom.lib" 

*Analysis directives: 
.TRAN  0 2 0 .1 SKIPBP 
.OPTIONS ADVCONV
.PROBE64 V(alias(*)) I(alias(*)) W(alias(*)) D(alias(*)) NOISE(alias(*)) 
.INC "..\SCHEMATIC1.net" 



**** INCLUDING SCHEMATIC1.net ****
* source BMS_V2
V_V1         N22536 N14639 3Vdc
V_V2         N14639 N26792 4Vdc
V_V3         N26792 0 4Vdc
V_V7         HIGH 0 5Vdc
R_R9         N267101 N22536  10 TC=0,0 
R_R10         N26778 N14639  10 TC=0,0 
R_R11         N52916 N26792  10 TC=0,0 
X_M25         N52916 N51698 0 NDS335N/FAI
X_M26         N26778 N51480 N26792 NDS335N/FAI
X_M27         N267101 N48782 N14639 NDS335N/FAI
R_R12         N48782 N22536  1Meg TC=0,0 
R_R13         N51480 N14639  1Meg TC=0,0 
R_R14         N51698 N26792  1Meg TC=0,0 
X_M28         N48782 HIGH 0 NDS335N/FAI
X_M29         N51480 HIGH 0 NDS335N/FAI
X_M30         N51698 HIGH 0 NDS335N/FAI
R_R15         A2 N22536  100Meg TC=0,0 
R_R16         N57566 N14639  100Meg TC=0,0 
R_R17         A0 N26792  100Meg TC=0,0 
R_R20         0 A0  1Meg TC=0,0 
R_R21         0 N57685  100Meg TC=0,0 
V_V8         0 V- 5Vdc
X_U3         A2 N57566 HIGH 0 N57685 LPV521
R_R22         N57685 N57566  100Meg TC=0,0 
R_R23         0 A2  100Meg TC=0,0 

**** RESUMING bias.cir ****
.END

**** 01/08/15 23:02:06 ***** PSpice 16.6.0 (October 2012) ***** ID# 0 ********

 ** Profile: "SCHEMATIC1-bias"  [ C:\Users\Clayton\Documents\Seafile\UAF\ITEST\Git Repo\BMS\PSpice\bms_v2-pspicefiles\schematic1\bias


 ****     Diode MODEL PARAMETERS


******************************************************************************




               X_M25.DDS       X_M25.DBODY     X_M25.DGD       X_M26.DDS       
          IS   10.000000E-15  140.000000E-15   10.000000E-15   10.000000E-15 
          BV   20.0336                                         20.0336       
          RS                     .04                                         
          TT                  100.000000E-09                                 
         CJO  250.000000E-12                  450.000000E-12  250.000000E-12 
          VJ     .8                              .15             .8          
           M     .3                                              .3          


               X_M26.DBODY     X_M26.DGD       X_M27.DDS       X_M27.DBODY     
          IS  140.000000E-15   10.000000E-15   10.000000E-15  140.000000E-15 
          BV                                   20.0336                       
          RS     .04                                             .04         
          TT  100.000000E-09                                  100.000000E-09 
         CJO                  450.000000E-12  250.000000E-12                 
          VJ                     .15             .8                          
           M                                     .3                          


               X_M27.DGD       X_M28.DDS       X_M28.DBODY     X_M28.DGD       
          IS   10.000000E-15   10.000000E-15  140.000000E-15   10.000000E-15 
          BV                   20.0336                                       
          RS                                     .04                         
          TT                                  100.000000E-09                 
         CJO  450.000000E-12  250.000000E-12                  450.000000E-12 
          VJ     .15             .8                              .15         
           M                     .3                                          


               X_M29.DDS       X_M29.DBODY     X_M29.DGD       X_M30.DDS       
          IS   10.000000E-15  140.000000E-15   10.000000E-15   10.000000E-15 
          BV   20.0336                                         20.0336       
          RS                     .04                                         
          TT                  100.000000E-09                                 
         CJO  250.000000E-12                  450.000000E-12  250.000000E-12 
          VJ     .8                              .15             .8          
           M     .3                                              .3          


               X_M30.DBODY     X_M30.DGD       X_U3.DD         X_U3.DC         
          IS  140.000000E-15   10.000000E-15   10.000000E-15  100.000000E-15 
          RS     .04                                                         
          TT  100.000000E-09                                                 
         CJO                  450.000000E-12                                 
          VJ                     .15                                         


               X_U3.DVN        X_U3.DIN        X_U3.DL         
          IS  100.000000E-18   10.000000E-15    9.500000E-12 
           N                                    1.47         
         XTI                                    1.5          
          KF  300.000000E-18                                 


**** 01/08/15 23:02:06 ***** PSpice 16.6.0 (October 2012) ***** ID# 0 ********

 ** Profile: "SCHEMATIC1-bias"  [ C:\Users\Clayton\Documents\Seafile\UAF\ITEST\Git Repo\BMS\PSpice\bms_v2-pspicefiles\schematic1\bias


 ****     BJT MODEL PARAMETERS


******************************************************************************




               X_U3.QNL        X_U3.QPL        
               NPN             PNP             
       LEVEL    1               1            
          IS  100.000000E-15  100.000000E-15 
          BF  100             100            
          NF    1               1            
          BR    1               1            
          NR    1               1            
         ISS    0               0            
          RE    0               0            
          RC    0               0            
         CJE    0               0            
         VJE     .75             .75         
         CJC    0               0            
         VJC     .75             .75         
         MJC     .33             .33         
        XCJC    1               1            
         CJS    0               0            
         VJS     .75             .75         
         XTI   18              18            
          KF    0               0            
          AF    1               1            
          CN    2.42            2.2          
           D     .87             .52         


**** 01/08/15 23:02:06 ***** PSpice 16.6.0 (October 2012) ***** ID# 0 ********

 ** Profile: "SCHEMATIC1-bias"  [ C:\Users\Clayton\Documents\Seafile\UAF\ITEST\Git Repo\BMS\PSpice\bms_v2-pspicefiles\schematic1\bias


 ****     Junction FET MODEL PARAMETERS


******************************************************************************




               X_U3.JC         
               NJF             
         VTO   -2            
        BETA  100.000000E-06 
          IS    1.000000E-18 


**** 01/08/15 23:02:06 ***** PSpice 16.6.0 (October 2012) ***** ID# 0 ********

 ** Profile: "SCHEMATIC1-bias"  [ C:\Users\Clayton\Documents\Seafile\UAF\ITEST\Git Repo\BMS\PSpice\bms_v2-pspicefiles\schematic1\bias


 ****     MOSFET MODEL PARAMETERS


******************************************************************************




               X_M25.DMOS      X_M25.INTER     X_M26.DMOS      X_M26.INTER     
               NMOS            NMOS            NMOS            NMOS            
       LEVEL    3               1               3               1            
           L  100.000000E-06  100.000000E-06  100.000000E-06  100.000000E-06 
           W  100.000000E-06  100.000000E-06  100.000000E-06  100.000000E-06 
         VTO     .64584         0                .64584         0            
          KP    8.164          10               8.164          10            
       GAMMA    0               0               0               0            
         PHI     .6              .6              .6              .6          
      LAMBDA    0               0               0               0            
          IS   10.000000E-15   10.000000E-15   10.000000E-15   10.000000E-15 
          JS    0               0               0               0            
          PB     .8              .8              .8              .8          
        PBSW     .8              .8              .8              .8          
          CJ    0               0               0               0            
        CJSW    0               0               0               0            
        CGSO    0               0               0               0            
        CGDO    0               0               0               0            
        CGBO    0               0               0               0            
         TOX  100.000000E-09    0             100.000000E-09    0            
          XJ    0               0               0               0            
       UCRIT   10.000000E+03   10.000000E+03   10.000000E+03   10.000000E+03 
        VMAX  400.000000E+03                  400.000000E+03                 
       THETA     .096                            .096                        
      DIOMOD    1               1               1               1            
         VFB    0               0               0               0            
        LETA    0               0               0               0            
        WETA    0               0               0               0            
          U0    0               0               0               0            
        TEMP    0               0               0               0            
         VDD    5               5               5               5            
       XPART    0               0               0               0            


               X_M27.DMOS      X_M27.INTER     X_M28.DMOS      X_M28.INTER     
               NMOS            NMOS            NMOS            NMOS            
       LEVEL    3               1               3               1            
           L  100.000000E-06  100.000000E-06  100.000000E-06  100.000000E-06 
           W  100.000000E-06  100.000000E-06  100.000000E-06  100.000000E-06 
         VTO     .64584         0                .64584         0            
          KP    8.164          10               8.164          10            
       GAMMA    0               0               0               0            
         PHI     .6              .6              .6              .6          
      LAMBDA    0               0               0               0            
          IS   10.000000E-15   10.000000E-15   10.000000E-15   10.000000E-15 
          JS    0               0               0               0            
          PB     .8              .8              .8              .8          
        PBSW     .8              .8              .8              .8          
          CJ    0               0               0               0            
        CJSW    0               0               0               0            
        CGSO    0               0               0               0            
        CGDO    0               0               0               0            
        CGBO    0               0               0               0            
         TOX  100.000000E-09    0             100.000000E-09    0            
          XJ    0               0               0               0            
       UCRIT   10.000000E+03   10.000000E+03   10.000000E+03   10.000000E+03 
        VMAX  400.000000E+03                  400.000000E+03                 
       THETA     .096                            .096                        
      DIOMOD    1               1               1               1            
         VFB    0               0               0               0            
        LETA    0               0               0               0            
        WETA    0               0               0               0            
          U0    0               0               0               0            
        TEMP    0               0               0               0            
         VDD    5               5               5               5            
       XPART    0               0               0               0            


               X_M29.DMOS      X_M29.INTER     X_M30.DMOS      X_M30.INTER     
               NMOS            NMOS            NMOS            NMOS            
       LEVEL    3               1               3               1            
           L  100.000000E-06  100.000000E-06  100.000000E-06  100.000000E-06 
           W  100.000000E-06  100.000000E-06  100.000000E-06  100.000000E-06 
         VTO     .64584         0                .64584         0            
          KP    8.164          10               8.164          10            
       GAMMA    0               0               0               0            
         PHI     .6              .6              .6              .6          
      LAMBDA    0               0               0               0            
          IS   10.000000E-15   10.000000E-15   10.000000E-15   10.000000E-15 
          JS    0               0               0               0            
          PB     .8              .8              .8              .8          
        PBSW     .8              .8              .8              .8          
          CJ    0               0               0               0            
        CJSW    0               0               0               0            
        CGSO    0               0               0               0            
        CGDO    0               0               0               0            
        CGBO    0               0               0               0            
         TOX  100.000000E-09    0             100.000000E-09    0            
          XJ    0               0               0               0            
       UCRIT   10.000000E+03   10.000000E+03   10.000000E+03   10.000000E+03 
        VMAX  400.000000E+03                  400.000000E+03                 
       THETA     .096                            .096                        
      DIOMOD    1               1               1               1            
         VFB    0               0               0               0            
        LETA    0               0               0               0            
        WETA    0               0               0               0            
          U0    0               0               0               0            
        TEMP    0               0               0               0            
         VDD    5               5               5               5            
       XPART    0               0               0               0            


               X_U3.PIN        X_U3.NIN        X_U3.NEN        X_U3.NOUT       
               PMOS            NMOS            NMOS            NMOS            
       LEVEL    1               1               1               3            
           L  100.000000E-06  100.000000E-06  100.000000E-06  100.000000E-06 
           W  100.000000E-06  100.000000E-06  100.000000E-06  100.000000E-06 
          LD                                                  100.000000E-09 
         VTO    -.7              .7              .5              .3          
          KP  200.000000E-06  200.000000E-06  200.000000E-06  200.000000E-06 
       GAMMA    0               0               0                .05         
         PHI     .6              .6              .6              .7          
      LAMBDA    0               0               0               0            
          IS   10.000000E-15   10.000000E-15    1.000000E-18    1.000000E-18 
          JS    0               0               0               0            
          PB     .8              .8              .8             1            
        PBSW     .8              .8              .8             1            
          CJ    0               0               0             910.982900E-06 
        CJSW    0               0               0               0            
        CGSO    0               0               0               0            
        CGDO    0               0               0               0            
        CGBO    0               0               0               0            
        NSUB                                                  100.000000E+15 
         NFS                                                  350.000000E+09 
         TOX    0               0               0              20.000000E-09 
          XJ    0               0               0             500.000000E-09 
          UO                                                  650            
       UCRIT   10.000000E+03   10.000000E+03   10.000000E+03   10.000000E+03 
        VMAX                                                  100.000000E+03 
       DELTA                                                     .5          
       THETA                                                     .1          
         ETA                                                    3.000000E-06 
       KAPPA                                                   10            
      DIOMOD    1               1               1               1            
         VFB    0               0               0               0            
        LETA    0               0               0               0            
        WETA    0               0               0               0            
          U0    0               0               0               0            
        TEMP    0               0               0               0            
         VDD    5               5               5               5            
       XPART    0               0               0               0            


               X_U3.POUT       
               PMOS            
       LEVEL    3            
         TPG   -1            
           L  100.000000E-06 
           W  100.000000E-06 
          LD  100.000000E-09 
         VTO    -.3          
          KP  200.000000E-06 
       GAMMA     .05         
         PHI     .7          
      LAMBDA    0            
          IS    1.000000E-18 
          JS    0            
          PB    1            
        PBSW    1            
          CJ  910.982900E-06 
        CJSW    0            
        CGSO    0            
        CGDO    0            
        CGBO    0            
        NSUB  100.000000E+15 
         NFS  350.000000E+09 
         TOX   20.000000E-09 
          XJ  500.000000E-09 
          UO  650            
       UCRIT   10.000000E+03 
        VMAX  100.000000E+03 
       DELTA     .5          
       THETA     .1          
         ETA    3.000000E-06 
       KAPPA   10            
      DIOMOD    1            
         VFB    0            
        LETA    0            
        WETA    0            
          U0    0            
        TEMP    0            
         VDD    5            
       XPART    0            

Reducing minimum delta to make the circuit converge.
Reducing minimum delta to make the circuit converge.
Reducing minimum delta to make the circuit converge.
Reducing minimum delta to make the circuit converge.
Reducing minimum delta to make the circuit converge.
Reducing minimum delta to make the circuit converge.
Reducing minimum delta to make the circuit converge.

ERROR(ORPSIM-15138): Convergence problem in transient analysis at Time =  70.24E-06.
         Time step =  73.27E-21, minimum allowable step size =  1.000E-18

  These voltages failed to converge:

    V(N48782)                 =    3.780uV  \   951.22nV
    V(N51698)                 =    5.934uV  \   366.87nV
    V(X_M25.1)                =    6.385uV  \   766.88nV
    V(X_M25.3)                =    5.618uV  \    3.761pV
    V(X_M25.5)                =    5.618uV  \    3.749pV
    V(X_M25.6)                =    6.390uV  \   771.88nV
    V(X_M26.1)                =    3.192uV  \    1.501uV
    V(X_M26.6)                =    3.197uV  \    1.506uV
    V(X_M27.1)                =    7.183uV  \    2.051uV
    V(X_M27.6)                =    7.188uV  \    2.056uV
    V(X_M28.2)                =    3.322uV  \   515.22nV
    V(X_M28.3)                =    2.819uV  \    12.60nV
    V(X_M28.4)                =    3.637uV  \   830.22nV
    V(X_M28.5)                =    2.807uV  \    2.999pV
    V(X_M28.6)                =    4.418uV  \    1.611uV
    V(X_M30.2)                =    5.767uV  \   200.37nV
    V(X_M30.3)                =    5.571uV  \    4.903nV
    V(X_M30.4)                =    5.889uV  \   322.87nV
    V(X_M30.5)                =    5.566uV  \    2.716pV
    V(X_M30.6)                =    6.661uV  \    1.095uV
    V(X_U3.90)                =    7.729uV  \    4.718uV

  These supply currents failed to converge:

    I(X_M25.E2)               =   122.88nA  \   203.19fA
    I(X_M26.E2)               =  -570.57nA  \  -250.70fA
    I(X_M27.E2)               =   -9.347nA  \   366.88fA
    I(X_M28.E2)               =   127.62nA  \    1.120pA
    I(X_M29.E2)               =    1.756uA  \    21.53fA
    I(X_M30.E2)               =   392.32nA  \    1.590pA
    I(X_U3.E3)                =  -150.54uA  \  -150.09uA
    I(X_U3.E4)                =   -78.23nA  \   -77.54nA
    I(X_U3.E11)               =  -100.12nA  \   -94.24nA
    I(X_U3.E12)               =  -100.12nA  \   -94.24nA
    I(X_U3.E23)               =    78.87nA  \    76.95nA
    I(X_U3.E24)               =   -38.80nA  \   -37.90nA
    I(X_U3.E25)               =    1.068uA  \   257.46nA
    I(X_U3.E58)               =  -100.12nA  \   -94.24nA
    I(X_U3.E88)               =   -78.23nA  \   -77.54nA
    I(V_V1)                   =   -11.69uA  \   -12.20uA
    I(V_V2)                   =   -20.39uA  \   -21.08uA
    I(V_V3)                   =   -24.27uA  \   -25.52uA
    I(V_V7)                   =    8.085uA  \   -1.474uA
    I(X_U3.V18)               =   100.12nA  \    94.23nA

  These devices failed to converge:
    X_M25.Dds X_M25.Dgd X_M26.Dds X_M27.Dds X_M28.Dds X_M28.Dgd X_M29.Dds 
    X_M29.Dgd X_M30.Dds X_M30.Dgd 



  Last node voltages tried were:

 NODE   VOLTAGE     NODE   VOLTAGE     NODE   VOLTAGE     NODE   VOLTAGE


(   A0)     .0396  (   A2)     .7880  (   V-)   -5.0000  ( HIGH)    5.0000      

(N14639)    8.0000 (N22536)   11.0000 (N26778)    8.0000 (N26792)    4.0000     

(N48782) 3.780E-06 (N51480) 1.604E-06 (N51698) 5.934E-06 (N52916)    4.0000     

(N57566)     .6577 (N57685)    1.0693 (X_U3.6)     .0367 (X_U3.7)    -.0291     

(X_U3.8)    0.0000 (X_U3.9)    1.4673 (N267101)   11.0000                       

(X_M25.1) 6.385E-06                   (X_M25.2)    4.0000                       

(X_M25.3) 5.618E-06                   (X_M25.4)    4.0000                       

(X_M25.5) 5.618E-06                   (X_M25.6) 6.390E-06                       

(X_M25.7)    4.0000                   (X_M25.8)    8.0000                       

(X_M25.9)   -8.0000                   (X_M26.1) 3.192E-06                       

(X_M26.2)    8.0000                   (X_M26.3)    4.0000                       

(X_M26.4)    8.0000                   (X_M26.5)    4.0000                       

(X_M26.6) 3.197E-06                   (X_M26.7)    8.0000                       

(X_M26.8)   16.0000                   (X_M26.9)  -16.0000                       

(X_M27.1) 7.183E-06                   (X_M27.2)   11.0000                       

(X_M27.3)    8.0000                   (X_M27.4)   11.0000                       

(X_M27.5)    8.0000                   (X_M27.6) 7.188E-06                       

(X_M27.7)   11.0000                   (X_M27.8)   22.0000                       

(X_M27.9)  -22.0000                   (X_M28.1)    5.0000                       

(X_M28.2) 3.322E-06                   (X_M28.3) 2.819E-06                       

(X_M28.4) 3.637E-06                   (X_M28.5) 2.807E-06                       

(X_M28.6) 4.418E-06                   (X_M28.7)    5.0000                       

(X_M28.8)  -10.0000                   (X_M28.9)   15.0000                       

(X_M29.1)    5.0000                   (X_M29.2) 1.351E-06                       

(X_M29.3) 904.6E-09                   (X_M29.4) 1.508E-06                       

(X_M29.5) 895.3E-09                   (X_M29.6) 2.289E-06                       

(X_M29.7)    5.0000                   (X_M29.8)  -10.0000                       

(X_M29.9)   15.0000                   (X_M30.1)    5.0000                       

(X_M30.2) 5.767E-06                   (X_M30.3) 5.571E-06                       

(X_M30.4) 5.889E-06                   (X_M30.5) 5.566E-06                       

(X_M30.6) 6.661E-06                   (X_M30.7)    5.0000                       

(X_M30.8)  -10.0000                   (X_M30.9)   15.0000                       

(X_U3.10)    1.4673                   (X_U3.11)    1.4673                       

(X_U3.12)    -.0291                   (X_U3.13)    5.0291                       

(X_U3.14)    5.0291                   (X_U3.15)    5.0000                       

(X_U3.16) 702.6E-09                   (X_U3.17)    5.0000                       

(X_U3.18)    5.0000                   (X_U3.19) 100.0E-09                       

(X_U3.20)     .6577                   (X_U3.21)     .6577                       

(X_U3.22)    0.0000                   (X_U3.23)     .7880                       

(X_U3.24)    0.0000                   (X_U3.25)    2.5000                       

(X_U3.26)    2.5000                   (X_U3.27)   -2.5000                       

(X_U3.28)     .7229                   (X_U3.29)     .7229                       

(X_U3.30) 250.0E-06                   (X_U3.31)-250.0E-06                       

(X_U3.32)     .0157                   (X_U3.33)     .6577                       

(X_U3.34)     .7880                   (X_U3.35)     .7880                       

(X_U3.36)     .7880                   (X_U3.37)    2.4985                       

(X_U3.38)    1.0693                   (X_U3.39)     .1080                       

(X_U3.40)    1.0693                   (X_U3.41)    4.8708                       

(X_U3.42)    4.8849                   (X_U3.43)-66.15E-12                       

(X_U3.44)     .7878                   (X_U3.45) 666.7E-06                       

(X_U3.46)     .1151                   (X_U3.47)    4.8708                       

(X_U3.48)    4.8708                   (X_U3.49)     .1081                       

(X_U3.50)     .1080                   (X_U3.51)    2.5007                       

(X_U3.52)    4.9472                   (X_U3.53)    1.4673                       

(X_U3.54)    4.2654                   (X_U3.55)    4.4714                       

(X_U3.56)     .5286                   (X_U3.57)    2.5007                       

(X_U3.58)    4.3259                   (X_U3.59)    2.4859                       

(X_U3.60)-641.2E+03                   (X_U3.61)     .1081                       

(X_U3.62)    4.8708                   (X_U3.63)    -.0549                       

(X_U3.64)     .6551                   (X_U3.65)    1.0693                       

(X_U3.66)    1.0693                   (X_U3.67)    1.0646                       

(X_U3.68)    1.0000                   (X_U3.69)     .6551                       

(X_U3.70)   -1.1429                   (X_U3.71)    1.0000                       

(X_U3.72)    1.0000                   (X_U3.73) 200.0E-06                       

(X_U3.74)    1.0000                   (X_U3.75)     .0013                       

(X_U3.76)    3.0000                   (X_U3.77)    3.3144                       

(X_U3.78)    3.3144                   (X_U3.79)    3.3144                       

(X_U3.80)    2.5000                   (X_U3.81)    2.5000                       

(X_U3.82)    5.0000                   (X_U3.83)    5.0000                       

(X_U3.84)     .7003                   (X_U3.85)     .7003                       

(X_U3.86)    4.0000                   (X_U3.87)    1.4673                       

(X_U3.88)    4.4000                   (X_U3.89)     .6000                       

(X_U3.90) 7.729E-06                   (X_U3.91)    5.0000                       

(X_U3.92)     .5955                   (X_U3.93)     .5955                   


**** Interrupt ****
